grids/grid_urisi/grid_3bus4wire/Comercial_Subnetwork_VLN_Node.Txt

LINE-GROUND and LINE-LINE VOLTAGES BY BUS & NODE

Bus  Node    VLN (kV)   Angle      pu     Base kV    Node-Node   VLL (kV)  Angle      pu

B1 . 1       11.546 /_    0.0   0.99992    20.000        1-2     19.998 /_   30.0   0.99992
   - 2       11.546 /_ -120.0   0.99992    20.000        2-3     19.998 /_  -90.0   0.99992
   - 3       11.546 /_  120.0   0.99992    20.000        3-1     19.998 /_  150.0   0.99992
B2 . 1      0.22934 /_  -30.5   0.99306     0.400        1-2    0.39724 /_   -0.4   0.99309
   - 2      0.22938 /_ -150.4   0.99326     0.400        2-3    0.39733 /_ -120.4   0.99333
   - 3       0.2294 /_   89.6   0.99333     0.400        3-1    0.39729 /_  119.5   0.99324
   - 4   3.8156E-010 /_  -85.2 1.6522E-009     0.400
B3 . 1      0.20741 /_  -30.7   0.89813     0.400        1-2    0.36107 /_   -0.5   0.90268
   - 2      0.20966 /_ -150.6   0.90784     0.400        2-3    0.36459 /_ -120.8   0.91146
   - 3      0.21043 /_   89.0   0.91118     0.400        3-1    0.36121 /_  118.9   0.90302
   - 4    0.0025342 /_   -8.3  0.010974     0.400
